LTspice 24.1.4 for Windows
Circuit: D:\PROIECT FINAL\Proiect_Varo_Gabriela_Bianca.net
Start Time: Mon Jan 19 00:25:29 2026
solver = Normal
Maximum thread count: 8
tnom = 27
temp = 27
method = trap
Laplace(E1): Window=20ms Nfft=32768
Laplace(E2): Window=20ms Nfft=32768
Laplace(E3): Window=20ms Nfft=32768
Laplace(E4): Window=20ms Nfft=32768
Laplace(E5): Window=20ms Nfft=32768
Laplace(E6): Window=20ms Nfft=32768
Laplace(E7): Window=20ms Nfft=32768
Laplace(E8): Window=20ms Nfft=32768
Early termination of direct N-R iteration.
Direct Newton iteration failed to find .op point.  (Use ".option noopiter" to skip.)
Starting Gmin stepping
Gmin = 10
vernier = 0.5
vernier = 0.25
vernier = 0.125
Gmin = 5.5165
vernier = 0.0625
vernier = 0.03125
vernier = 0.015625
vernier = 0.0078125
Gmin = 5.49501
vernier = 0.00390625
vernier = 0.00195312
vernier = 0.000976562
vernier = 0.000488281
Gmin = 5.50104
Gmin = 0
Gmin stepping failed

Starting source stepping with srcstepmethod=0
Source Step = 3.0303%
Source Step = 33.3333%
Source Step = 63.6364%
Source Step = 93.9394%
Source stepping succeeded in finding the operating point.

Total elapsed time: 4.021 seconds.

Files loaded:
D:\PROIECT FINAL\Proiect_Varo_Gabriela_Bianca.net
D:\PROIECT FINAL\TL081.lib

